 # Fcc Al oriented X=[100], Y=[010], Z=[001].
 CRYSTAL
 PRIMVEC
      4.04600000        0.00000000        0.00000000
      0.00000000        4.04600000        0.00000000
      0.00000000        0.00000000        4.04600000
 CONVVEC
      4.04600000        0.00000000        0.00000000
      0.00000000        4.04600000        0.00000000
      0.00000000        0.00000000        4.04600000
 PRIMCOORD
        4 1
13        0.00000000        0.00000000        0.00000000
13        2.02300000        2.02300000        0.00000000
13        0.00000000        2.02300000        2.02300000
13        2.02300000        0.00000000        2.02300000
